
---------- Begin Simulation Statistics ----------
sim_seconds                                  2.397146                       # Number of seconds simulated
sim_ticks                                2397145743500                       # Number of ticks simulated
final_tick                               2397145743500                       # Number of ticks from beginning of simulation (restored from checkpoints and never reset)
sim_freq                                 1000000000000                       # Frequency of simulated ticks
host_inst_rate                                 222288                       # Simulator instruction rate (inst/s)
host_op_rate                                   222288                       # Simulator op (including micro ops) rate (op/s)
host_tick_rate                             5571166971                       # Simulator tick rate (ticks/s)
host_mem_usage                                 731248                       # Number of bytes of host memory used
host_seconds                                   430.28                       # Real time elapsed on the host
sim_insts                                    95645282                       # Number of instructions simulated
sim_ops                                      95645282                       # Number of ops (including micro ops) simulated
system.voltage_domain.voltage                       1                       # Voltage in Volts
system.clk_domain.clock                          1000                       # Clock period in ticks
system.mem_ctrls.pwrStateResidencyTicks::UNDEFINED 2397145743500                       # Cumulative time (in ticks) in various power states
system.mem_ctrls.bytes_read::cpu.inst         8997888                       # Number of bytes read from this memory
system.mem_ctrls.bytes_read::cpu.data       112068736                       # Number of bytes read from this memory
system.mem_ctrls.bytes_read::tsunami.ide         3968                       # Number of bytes read from this memory
system.mem_ctrls.bytes_read::total          121070592                       # Number of bytes read from this memory
system.mem_ctrls.bytes_inst_read::cpu.inst      8997888                       # Number of instructions bytes read from this memory
system.mem_ctrls.bytes_inst_read::total       8997888                       # Number of instructions bytes read from this memory
system.mem_ctrls.bytes_written::writebacks     26416512                       # Number of bytes written to this memory
system.mem_ctrls.bytes_written::total        26416512                       # Number of bytes written to this memory
system.mem_ctrls.num_reads::cpu.inst            70296                       # Number of read requests responded to by this memory
system.mem_ctrls.num_reads::cpu.data           875537                       # Number of read requests responded to by this memory
system.mem_ctrls.num_reads::tsunami.ide            31                       # Number of read requests responded to by this memory
system.mem_ctrls.num_reads::total              945864                       # Number of read requests responded to by this memory
system.mem_ctrls.num_writes::writebacks        206379                       # Number of write requests responded to by this memory
system.mem_ctrls.num_writes::total             206379                       # Number of write requests responded to by this memory
system.mem_ctrls.bw_read::cpu.inst            3753584                       # Total read bandwidth from this memory (bytes/s)
system.mem_ctrls.bw_read::cpu.data           46750906                       # Total read bandwidth from this memory (bytes/s)
system.mem_ctrls.bw_read::tsunami.ide            1655                       # Total read bandwidth from this memory (bytes/s)
system.mem_ctrls.bw_read::total              50506146                       # Total read bandwidth from this memory (bytes/s)
system.mem_ctrls.bw_inst_read::cpu.inst       3753584                       # Instruction read bandwidth from this memory (bytes/s)
system.mem_ctrls.bw_inst_read::total          3753584                       # Instruction read bandwidth from this memory (bytes/s)
system.mem_ctrls.bw_write::writebacks        11019986                       # Write bandwidth from this memory (bytes/s)
system.mem_ctrls.bw_write::total             11019986                       # Write bandwidth from this memory (bytes/s)
system.mem_ctrls.bw_total::writebacks        11019986                       # Total bandwidth to/from this memory (bytes/s)
system.mem_ctrls.bw_total::cpu.inst           3753584                       # Total bandwidth to/from this memory (bytes/s)
system.mem_ctrls.bw_total::cpu.data          46750906                       # Total bandwidth to/from this memory (bytes/s)
system.mem_ctrls.bw_total::tsunami.ide           1655                       # Total bandwidth to/from this memory (bytes/s)
system.mem_ctrls.bw_total::total             61526131                       # Total bandwidth to/from this memory (bytes/s)
system.mem_ctrls.readReqs                      945865                       # Number of read requests accepted
system.mem_ctrls.writeReqs                     206379                       # Number of write requests accepted
system.mem_ctrls.readBursts                   1891730                       # Number of DRAM read bursts, including those serviced by the write queue
system.mem_ctrls.writeBursts                   412758                       # Number of DRAM write bursts, including those merged in the write queue
system.mem_ctrls.bytesReadDRAM              120519680                       # Total number of bytes read from DRAM
system.mem_ctrls.bytesReadWrQ                  551040                       # Total number of bytes read from write queue
system.mem_ctrls.bytesWritten                26408640                       # Total number of bytes written to DRAM
system.mem_ctrls.bytesReadSys               121070720                       # Total read bytes from the system interface side
system.mem_ctrls.bytesWrittenSys             26416512                       # Total written bytes from the system interface side
system.mem_ctrls.servicedByWrQ                   8610                       # Number of DRAM read bursts serviced by the write queue
system.mem_ctrls.mergedWrBursts                    94                       # Number of DRAM write bursts merged with an existing one
system.mem_ctrls.neitherReadNorWriteReqs            0                       # Number of requests that are neither read nor write
system.mem_ctrls.perBankRdBursts::0            124665                       # Per bank write bursts
system.mem_ctrls.perBankRdBursts::1            110553                       # Per bank write bursts
system.mem_ctrls.perBankRdBursts::2            111693                       # Per bank write bursts
system.mem_ctrls.perBankRdBursts::3             98929                       # Per bank write bursts
system.mem_ctrls.perBankRdBursts::4             96590                       # Per bank write bursts
system.mem_ctrls.perBankRdBursts::5            142022                       # Per bank write bursts
system.mem_ctrls.perBankRdBursts::6             99727                       # Per bank write bursts
system.mem_ctrls.perBankRdBursts::7            125395                       # Per bank write bursts
system.mem_ctrls.perBankRdBursts::8            112011                       # Per bank write bursts
system.mem_ctrls.perBankRdBursts::9            142633                       # Per bank write bursts
system.mem_ctrls.perBankRdBursts::10           128369                       # Per bank write bursts
system.mem_ctrls.perBankRdBursts::11           106024                       # Per bank write bursts
system.mem_ctrls.perBankRdBursts::12           104716                       # Per bank write bursts
system.mem_ctrls.perBankRdBursts::13           146055                       # Per bank write bursts
system.mem_ctrls.perBankRdBursts::14           100115                       # Per bank write bursts
system.mem_ctrls.perBankRdBursts::15           133623                       # Per bank write bursts
system.mem_ctrls.perBankWrBursts::0             26077                       # Per bank write bursts
system.mem_ctrls.perBankWrBursts::1             29510                       # Per bank write bursts
system.mem_ctrls.perBankWrBursts::2             24546                       # Per bank write bursts
system.mem_ctrls.perBankWrBursts::3             25302                       # Per bank write bursts
system.mem_ctrls.perBankWrBursts::4             22980                       # Per bank write bursts
system.mem_ctrls.perBankWrBursts::5             26300                       # Per bank write bursts
system.mem_ctrls.perBankWrBursts::6             22630                       # Per bank write bursts
system.mem_ctrls.perBankWrBursts::7             24974                       # Per bank write bursts
system.mem_ctrls.perBankWrBursts::8             24049                       # Per bank write bursts
system.mem_ctrls.perBankWrBursts::9             24928                       # Per bank write bursts
system.mem_ctrls.perBankWrBursts::10            26714                       # Per bank write bursts
system.mem_ctrls.perBankWrBursts::11            24680                       # Per bank write bursts
system.mem_ctrls.perBankWrBursts::12            24788                       # Per bank write bursts
system.mem_ctrls.perBankWrBursts::13            27083                       # Per bank write bursts
system.mem_ctrls.perBankWrBursts::14            23308                       # Per bank write bursts
system.mem_ctrls.perBankWrBursts::15            34766                       # Per bank write bursts
system.mem_ctrls.numRdRetry                        12                       # Number of times read queue was full causing retry
system.mem_ctrls.numWrRetry                      1976                       # Number of times write queue was full causing retry
system.mem_ctrls.totGap                  2397145723000                       # Total gap between requests
system.mem_ctrls.readPktSize::0                     0                       # Read request sizes (log2)
system.mem_ctrls.readPktSize::1                     0                       # Read request sizes (log2)
system.mem_ctrls.readPktSize::2                     0                       # Read request sizes (log2)
system.mem_ctrls.readPktSize::3                     0                       # Read request sizes (log2)
system.mem_ctrls.readPktSize::4                     0                       # Read request sizes (log2)
system.mem_ctrls.readPktSize::5                     0                       # Read request sizes (log2)
system.mem_ctrls.readPktSize::6               1891730                       # Read request sizes (log2)
system.mem_ctrls.writePktSize::0                    0                       # Write request sizes (log2)
system.mem_ctrls.writePktSize::1                    0                       # Write request sizes (log2)
system.mem_ctrls.writePktSize::2                    0                       # Write request sizes (log2)
system.mem_ctrls.writePktSize::3                    0                       # Write request sizes (log2)
system.mem_ctrls.writePktSize::4                    0                       # Write request sizes (log2)
system.mem_ctrls.writePktSize::5                    0                       # Write request sizes (log2)
system.mem_ctrls.writePktSize::6               412758                       # Write request sizes (log2)
system.mem_ctrls.rdQLenPdf::0                  809823                       # What read queue length does an incoming req see
system.mem_ctrls.rdQLenPdf::1                  813365                       # What read queue length does an incoming req see
system.mem_ctrls.rdQLenPdf::2                  106503                       # What read queue length does an incoming req see
system.mem_ctrls.rdQLenPdf::3                  103881                       # What read queue length does an incoming req see
system.mem_ctrls.rdQLenPdf::4                   17773                       # What read queue length does an incoming req see
system.mem_ctrls.rdQLenPdf::5                   19312                       # What read queue length does an incoming req see
system.mem_ctrls.rdQLenPdf::6                    7428                       # What read queue length does an incoming req see
system.mem_ctrls.rdQLenPdf::7                    4689                       # What read queue length does an incoming req see
system.mem_ctrls.rdQLenPdf::8                     142                       # What read queue length does an incoming req see
system.mem_ctrls.rdQLenPdf::9                     117                       # What read queue length does an incoming req see
system.mem_ctrls.rdQLenPdf::10                     14                       # What read queue length does an incoming req see
system.mem_ctrls.rdQLenPdf::11                     13                       # What read queue length does an incoming req see
system.mem_ctrls.rdQLenPdf::12                      2                       # What read queue length does an incoming req see
system.mem_ctrls.rdQLenPdf::13                      2                       # What read queue length does an incoming req see
system.mem_ctrls.rdQLenPdf::14                      1                       # What read queue length does an incoming req see
system.mem_ctrls.rdQLenPdf::15                      1                       # What read queue length does an incoming req see
system.mem_ctrls.rdQLenPdf::16                      1                       # What read queue length does an incoming req see
system.mem_ctrls.rdQLenPdf::17                      1                       # What read queue length does an incoming req see
system.mem_ctrls.rdQLenPdf::18                      1                       # What read queue length does an incoming req see
system.mem_ctrls.rdQLenPdf::19                      1                       # What read queue length does an incoming req see
system.mem_ctrls.rdQLenPdf::20                      1                       # What read queue length does an incoming req see
system.mem_ctrls.rdQLenPdf::21                      1                       # What read queue length does an incoming req see
system.mem_ctrls.rdQLenPdf::22                      1                       # What read queue length does an incoming req see
system.mem_ctrls.rdQLenPdf::23                      2                       # What read queue length does an incoming req see
system.mem_ctrls.rdQLenPdf::24                      3                       # What read queue length does an incoming req see
system.mem_ctrls.rdQLenPdf::25                      2                       # What read queue length does an incoming req see
system.mem_ctrls.rdQLenPdf::26                      4                       # What read queue length does an incoming req see
system.mem_ctrls.rdQLenPdf::27                      4                       # What read queue length does an incoming req see
system.mem_ctrls.rdQLenPdf::28                      4                       # What read queue length does an incoming req see
system.mem_ctrls.rdQLenPdf::29                      8                       # What read queue length does an incoming req see
system.mem_ctrls.rdQLenPdf::30                     12                       # What read queue length does an incoming req see
system.mem_ctrls.rdQLenPdf::31                      8                       # What read queue length does an incoming req see
system.mem_ctrls.wrQLenPdf::0                       1                       # What write queue length does an incoming req see
system.mem_ctrls.wrQLenPdf::1                       1                       # What write queue length does an incoming req see
system.mem_ctrls.wrQLenPdf::2                       1                       # What write queue length does an incoming req see
system.mem_ctrls.wrQLenPdf::3                       1                       # What write queue length does an incoming req see
system.mem_ctrls.wrQLenPdf::4                       1                       # What write queue length does an incoming req see
system.mem_ctrls.wrQLenPdf::5                       1                       # What write queue length does an incoming req see
system.mem_ctrls.wrQLenPdf::6                       1                       # What write queue length does an incoming req see
system.mem_ctrls.wrQLenPdf::7                       1                       # What write queue length does an incoming req see
system.mem_ctrls.wrQLenPdf::8                       1                       # What write queue length does an incoming req see
system.mem_ctrls.wrQLenPdf::9                       1                       # What write queue length does an incoming req see
system.mem_ctrls.wrQLenPdf::10                      1                       # What write queue length does an incoming req see
system.mem_ctrls.wrQLenPdf::11                      1                       # What write queue length does an incoming req see
system.mem_ctrls.wrQLenPdf::12                      1                       # What write queue length does an incoming req see
system.mem_ctrls.wrQLenPdf::13                      1                       # What write queue length does an incoming req see
system.mem_ctrls.wrQLenPdf::14                      1                       # What write queue length does an incoming req see
system.mem_ctrls.wrQLenPdf::15                   5194                       # What write queue length does an incoming req see
system.mem_ctrls.wrQLenPdf::16                   5937                       # What write queue length does an incoming req see
system.mem_ctrls.wrQLenPdf::17                  12787                       # What write queue length does an incoming req see
system.mem_ctrls.wrQLenPdf::18                  14378                       # What write queue length does an incoming req see
system.mem_ctrls.wrQLenPdf::19                  19659                       # What write queue length does an incoming req see
system.mem_ctrls.wrQLenPdf::20                  20049                       # What write queue length does an incoming req see
system.mem_ctrls.wrQLenPdf::21                  20979                       # What write queue length does an incoming req see
system.mem_ctrls.wrQLenPdf::22                  21088                       # What write queue length does an incoming req see
system.mem_ctrls.wrQLenPdf::23                  22592                       # What write queue length does an incoming req see
system.mem_ctrls.wrQLenPdf::24                  22779                       # What write queue length does an incoming req see
system.mem_ctrls.wrQLenPdf::25                  24348                       # What write queue length does an incoming req see
system.mem_ctrls.wrQLenPdf::26                  24830                       # What write queue length does an incoming req see
system.mem_ctrls.wrQLenPdf::27                  23719                       # What write queue length does an incoming req see
system.mem_ctrls.wrQLenPdf::28                  29252                       # What write queue length does an incoming req see
system.mem_ctrls.wrQLenPdf::29                  31546                       # What write queue length does an incoming req see
system.mem_ctrls.wrQLenPdf::30                  25793                       # What write queue length does an incoming req see
system.mem_ctrls.wrQLenPdf::31                  22996                       # What write queue length does an incoming req see
system.mem_ctrls.wrQLenPdf::32                  23210                       # What write queue length does an incoming req see
system.mem_ctrls.wrQLenPdf::33                   3757                       # What write queue length does an incoming req see
system.mem_ctrls.wrQLenPdf::34                    338                       # What write queue length does an incoming req see
system.mem_ctrls.wrQLenPdf::35                    311                       # What write queue length does an incoming req see
system.mem_ctrls.wrQLenPdf::36                    582                       # What write queue length does an incoming req see
system.mem_ctrls.wrQLenPdf::37                    561                       # What write queue length does an incoming req see
system.mem_ctrls.wrQLenPdf::38                    292                       # What write queue length does an incoming req see
system.mem_ctrls.wrQLenPdf::39                    265                       # What write queue length does an incoming req see
system.mem_ctrls.wrQLenPdf::40                    283                       # What write queue length does an incoming req see
system.mem_ctrls.wrQLenPdf::41                    276                       # What write queue length does an incoming req see
system.mem_ctrls.wrQLenPdf::42                    276                       # What write queue length does an incoming req see
system.mem_ctrls.wrQLenPdf::43                    440                       # What write queue length does an incoming req see
system.mem_ctrls.wrQLenPdf::44                    435                       # What write queue length does an incoming req see
system.mem_ctrls.wrQLenPdf::45                    383                       # What write queue length does an incoming req see
system.mem_ctrls.wrQLenPdf::46                    442                       # What write queue length does an incoming req see
system.mem_ctrls.wrQLenPdf::47                    560                       # What write queue length does an incoming req see
system.mem_ctrls.wrQLenPdf::48                    764                       # What write queue length does an incoming req see
system.mem_ctrls.wrQLenPdf::49                    767                       # What write queue length does an incoming req see
system.mem_ctrls.wrQLenPdf::50                    787                       # What write queue length does an incoming req see
system.mem_ctrls.wrQLenPdf::51                   1008                       # What write queue length does an incoming req see
system.mem_ctrls.wrQLenPdf::52                   1139                       # What write queue length does an incoming req see
system.mem_ctrls.wrQLenPdf::53                   1409                       # What write queue length does an incoming req see
system.mem_ctrls.wrQLenPdf::54                   1963                       # What write queue length does an incoming req see
system.mem_ctrls.wrQLenPdf::55                   2259                       # What write queue length does an incoming req see
system.mem_ctrls.wrQLenPdf::56                   1673                       # What write queue length does an incoming req see
system.mem_ctrls.wrQLenPdf::57                   1657                       # What write queue length does an incoming req see
system.mem_ctrls.wrQLenPdf::58                   1747                       # What write queue length does an incoming req see
system.mem_ctrls.wrQLenPdf::59                   1513                       # What write queue length does an incoming req see
system.mem_ctrls.wrQLenPdf::60                   2469                       # What write queue length does an incoming req see
system.mem_ctrls.wrQLenPdf::61                   2425                       # What write queue length does an incoming req see
system.mem_ctrls.wrQLenPdf::62                   5816                       # What write queue length does an incoming req see
system.mem_ctrls.wrQLenPdf::63                   4916                       # What write queue length does an incoming req see
system.mem_ctrls.bytesPerActivate::samples       283648                       # Bytes accessed per row activation
system.mem_ctrls.bytesPerActivate::mean    517.987365                       # Bytes accessed per row activation
system.mem_ctrls.bytesPerActivate::gmean   353.642651                       # Bytes accessed per row activation
system.mem_ctrls.bytesPerActivate::stdev   395.589579                       # Bytes accessed per row activation
system.mem_ctrls.bytesPerActivate::0-127         7275      2.56%      2.56% # Bytes accessed per row activation
system.mem_ctrls.bytesPerActivate::128-255        97906     34.52%     37.08% # Bytes accessed per row activation
system.mem_ctrls.bytesPerActivate::256-383        34302     12.09%     49.17% # Bytes accessed per row activation
system.mem_ctrls.bytesPerActivate::384-511        16480      5.81%     54.98% # Bytes accessed per row activation
system.mem_ctrls.bytesPerActivate::512-639        14760      5.20%     60.19% # Bytes accessed per row activation
system.mem_ctrls.bytesPerActivate::640-767         6767      2.39%     62.57% # Bytes accessed per row activation
system.mem_ctrls.bytesPerActivate::768-895         5836      2.06%     64.63% # Bytes accessed per row activation
system.mem_ctrls.bytesPerActivate::896-1023         5990      2.11%     66.74% # Bytes accessed per row activation
system.mem_ctrls.bytesPerActivate::1024-1151        94332     33.26%    100.00% # Bytes accessed per row activation
system.mem_ctrls.bytesPerActivate::total       283648                       # Bytes accessed per row activation
system.mem_ctrls.rdPerTurnAround::samples        22598                       # Reads before turning the bus around for writes
system.mem_ctrls.rdPerTurnAround::mean      83.330029                       # Reads before turning the bus around for writes
system.mem_ctrls.rdPerTurnAround::stdev   6816.462877                       # Reads before turning the bus around for writes
system.mem_ctrls.rdPerTurnAround::0-32767        22596     99.99%     99.99% # Reads before turning the bus around for writes
system.mem_ctrls.rdPerTurnAround::32768-65535            1      0.00%    100.00% # Reads before turning the bus around for writes
system.mem_ctrls.rdPerTurnAround::1.01581e+06-1.04858e+06            1      0.00%    100.00% # Reads before turning the bus around for writes
system.mem_ctrls.rdPerTurnAround::total         22598                       # Reads before turning the bus around for writes
system.mem_ctrls.wrPerTurnAround::samples        22598                       # Writes before turning the bus around for reads
system.mem_ctrls.wrPerTurnAround::mean      18.259802                       # Writes before turning the bus around for reads
system.mem_ctrls.wrPerTurnAround::gmean     17.014350                       # Writes before turning the bus around for reads
system.mem_ctrls.wrPerTurnAround::stdev     24.502332                       # Writes before turning the bus around for reads
system.mem_ctrls.wrPerTurnAround::16-31         22413     99.18%     99.18% # Writes before turning the bus around for reads
system.mem_ctrls.wrPerTurnAround::32-47            49      0.22%     99.40% # Writes before turning the bus around for reads
system.mem_ctrls.wrPerTurnAround::48-63            17      0.08%     99.47% # Writes before turning the bus around for reads
system.mem_ctrls.wrPerTurnAround::64-79            39      0.17%     99.65% # Writes before turning the bus around for reads
system.mem_ctrls.wrPerTurnAround::80-95             3      0.01%     99.66% # Writes before turning the bus around for reads
system.mem_ctrls.wrPerTurnAround::96-111            6      0.03%     99.69% # Writes before turning the bus around for reads
system.mem_ctrls.wrPerTurnAround::112-127            5      0.02%     99.71% # Writes before turning the bus around for reads
system.mem_ctrls.wrPerTurnAround::128-143            8      0.04%     99.74% # Writes before turning the bus around for reads
system.mem_ctrls.wrPerTurnAround::144-159            1      0.00%     99.75% # Writes before turning the bus around for reads
system.mem_ctrls.wrPerTurnAround::176-191            2      0.01%     99.76% # Writes before turning the bus around for reads
system.mem_ctrls.wrPerTurnAround::192-207            1      0.00%     99.76% # Writes before turning the bus around for reads
system.mem_ctrls.wrPerTurnAround::208-223            2      0.01%     99.77% # Writes before turning the bus around for reads
system.mem_ctrls.wrPerTurnAround::224-239            1      0.00%     99.77% # Writes before turning the bus around for reads
system.mem_ctrls.wrPerTurnAround::240-255            2      0.01%     99.78% # Writes before turning the bus around for reads
system.mem_ctrls.wrPerTurnAround::256-271            1      0.00%     99.79% # Writes before turning the bus around for reads
system.mem_ctrls.wrPerTurnAround::304-319            2      0.01%     99.80% # Writes before turning the bus around for reads
system.mem_ctrls.wrPerTurnAround::384-399            1      0.00%     99.80% # Writes before turning the bus around for reads
system.mem_ctrls.wrPerTurnAround::432-447            2      0.01%     99.81% # Writes before turning the bus around for reads
system.mem_ctrls.wrPerTurnAround::464-479            2      0.01%     99.82% # Writes before turning the bus around for reads
system.mem_ctrls.wrPerTurnAround::496-511            6      0.03%     99.85% # Writes before turning the bus around for reads
system.mem_ctrls.wrPerTurnAround::512-527           28      0.12%     99.97% # Writes before turning the bus around for reads
system.mem_ctrls.wrPerTurnAround::528-543            1      0.00%     99.97% # Writes before turning the bus around for reads
system.mem_ctrls.wrPerTurnAround::576-591            1      0.00%     99.98% # Writes before turning the bus around for reads
system.mem_ctrls.wrPerTurnAround::592-607            1      0.00%     99.98% # Writes before turning the bus around for reads
system.mem_ctrls.wrPerTurnAround::688-703            1      0.00%     99.99% # Writes before turning the bus around for reads
system.mem_ctrls.wrPerTurnAround::752-767            1      0.00%     99.99% # Writes before turning the bus around for reads
system.mem_ctrls.wrPerTurnAround::768-783            1      0.00%    100.00% # Writes before turning the bus around for reads
system.mem_ctrls.wrPerTurnAround::896-911            1      0.00%    100.00% # Writes before turning the bus around for reads
system.mem_ctrls.wrPerTurnAround::total         22598                       # Writes before turning the bus around for reads
system.mem_ctrls.totQLat                  39239902526                       # Total ticks spent queuing
system.mem_ctrls.totMemAccLat             74548402526                       # Total ticks spent from burst creation until serviced by the DRAM
system.mem_ctrls.totBusLat                 9415600000                       # Total ticks spent in databus transfers
system.mem_ctrls.avgQLat                     20837.71                       # Average queueing delay per DRAM burst
system.mem_ctrls.avgBusLat                    5000.00                       # Average bus latency per DRAM burst
system.mem_ctrls.avgMemAccLat                39587.71                       # Average memory access latency per DRAM burst
system.mem_ctrls.avgRdBW                        50.28                       # Average DRAM read bandwidth in MiByte/s
system.mem_ctrls.avgWrBW                        11.02                       # Average achieved write bandwidth in MiByte/s
system.mem_ctrls.avgRdBWSys                     50.51                       # Average system read bandwidth in MiByte/s
system.mem_ctrls.avgWrBWSys                     11.02                       # Average system write bandwidth in MiByte/s
system.mem_ctrls.peakBW                      12800.00                       # Theoretical peak bandwidth in MiByte/s
system.mem_ctrls.busUtil                         0.48                       # Data bus utilization in percentage
system.mem_ctrls.busUtilRead                     0.39                       # Data bus utilization in percentage for reads
system.mem_ctrls.busUtilWrite                    0.09                       # Data bus utilization in percentage for writes
system.mem_ctrls.avgRdQLen                       2.51                       # Average read queue length when enqueuing
system.mem_ctrls.avgWrQLen                      22.65                       # Average write queue length when enqueuing
system.mem_ctrls.readRowHits                  1675089                       # Number of row buffer hits during reads
system.mem_ctrls.writeRowHits                  337011                       # Number of row buffer hits during writes
system.mem_ctrls.readRowHitRate                 88.95                       # Row buffer hit rate for reads
system.mem_ctrls.writeRowHitRate                81.67                       # Row buffer hit rate for writes
system.mem_ctrls.avgGap                    2080415.02                       # Average gap between requests
system.mem_ctrls.pageHitRate                    87.64                       # Row buffer hit rate, read and write combined
system.mem_ctrls_0.actEnergy                971418420                       # Energy for activate commands per rank (pJ)
system.mem_ctrls_0.preEnergy                516313545                       # Energy for precharge commands per rank (pJ)
system.mem_ctrls_0.readEnergy              6494358360                       # Energy for read commands per rank (pJ)
system.mem_ctrls_0.writeEnergy             1056105180                       # Energy for write commands per rank (pJ)
system.mem_ctrls_0.refreshEnergy         8803488720.000002                       # Energy for refresh commands per rank (pJ)
system.mem_ctrls_0.actBackEnergy          12799884090                       # Energy for active background per rank (pJ)
system.mem_ctrls_0.preBackEnergy            448388640                       # Energy for precharge background per rank (pJ)
system.mem_ctrls_0.actPowerDownEnergy     26789064060                       # Energy for active power-down per rank (pJ)
system.mem_ctrls_0.prePowerDownEnergy      6351173280                       # Energy for precharge power-down per rank (pJ)
system.mem_ctrls_0.selfRefreshEnergy     550761875400                       # Energy for self refresh per rank (pJ)
system.mem_ctrls_0.totalEnergy           614993390055                       # Total energy per rank (pJ)
system.mem_ctrls_0.averagePower            256.552357                       # Core power per rank (mW)
system.mem_ctrls_0.totalIdleTime         2367902927250                       # Total Idle time Per DRAM Rank
system.mem_ctrls_0.memoryStateTime::IDLE    464672250                       # Time in different power states
system.mem_ctrls_0.memoryStateTime::REF    3730136000                       # Time in different power states
system.mem_ctrls_0.memoryStateTime::SREF 2292617735250                       # Time in different power states
system.mem_ctrls_0.memoryStateTime::PRE_PDN  16538973750                       # Time in different power states
system.mem_ctrls_0.memoryStateTime::ACT   25047392750                       # Time in different power states
system.mem_ctrls_0.memoryStateTime::ACT_PDN  58746833500                       # Time in different power states
system.mem_ctrls_1.actEnergy               1053878280                       # Energy for activate commands per rank (pJ)
system.mem_ctrls_1.preEnergy                560130615                       # Energy for precharge commands per rank (pJ)
system.mem_ctrls_1.readEnergy              6951111300                       # Energy for read commands per rank (pJ)
system.mem_ctrls_1.writeEnergy             1097849520                       # Energy for write commands per rank (pJ)
system.mem_ctrls_1.refreshEnergy         8780747040.000002                       # Energy for refresh commands per rank (pJ)
system.mem_ctrls_1.actBackEnergy          12889775940                       # Energy for active background per rank (pJ)
system.mem_ctrls_1.preBackEnergy            452340960                       # Energy for precharge background per rank (pJ)
system.mem_ctrls_1.actPowerDownEnergy     26852998110                       # Energy for active power-down per rank (pJ)
system.mem_ctrls_1.prePowerDownEnergy      5983336320                       # Energy for precharge power-down per rank (pJ)
system.mem_ctrls_1.selfRefreshEnergy     550933193100                       # Energy for self refresh per rank (pJ)
system.mem_ctrls_1.totalEnergy           615556844205                       # Total energy per rank (pJ)
system.mem_ctrls_1.averagePower            256.787409                       # Core power per rank (mW)
system.mem_ctrls_1.totalIdleTime         2367698515000                       # Total Idle time Per DRAM Rank
system.mem_ctrls_1.memoryStateTime::IDLE    474360000                       # Time in different power states
system.mem_ctrls_1.memoryStateTime::REF    3720744000                       # Time in different power states
system.mem_ctrls_1.memoryStateTime::SREF 2293227676000                       # Time in different power states
system.mem_ctrls_1.memoryStateTime::PRE_PDN  15581792500                       # Time in different power states
system.mem_ctrls_1.memoryStateTime::ACT   25252124500                       # Time in different power states
system.mem_ctrls_1.memoryStateTime::ACT_PDN  58889046500                       # Time in different power states
system.pwrStateResidencyTicks::UNDEFINED 2397145743500                       # Cumulative time (in ticks) in various power states
system.bridge.pwrStateResidencyTicks::UNDEFINED 2397145743500                       # Cumulative time (in ticks) in various power states
system.cpu.branchPred.lookups                28209667                       # Number of BP lookups
system.cpu.branchPred.condPredicted          23228809                       # Number of conditional branches predicted
system.cpu.branchPred.condIncorrect            880708                       # Number of conditional branches incorrect
system.cpu.branchPred.BTBLookups             17302885                       # Number of BTB lookups
system.cpu.branchPred.BTBHits                 9684727                       # Number of BTB hits
system.cpu.branchPred.BTBCorrect                    0                       # Number of correct BTB predictions (this stat may not work properly.
system.cpu.branchPred.BTBHitPct             55.971747                       # BTB Hit Percentage
system.cpu.branchPred.usedRAS                 2037557                       # Number of times the RAS was used to get a target.
system.cpu.branchPred.RASInCorrect              77359                       # Number of incorrect RAS predictions.
system.cpu.branchPred.indirectLookups         5962531                       # Number of indirect predictor lookups.
system.cpu.branchPred.indirectHits            1192140                       # Number of indirect target hits.
system.cpu.branchPred.indirectMisses          4770391                       # Number of indirect misses.
system.cpu.branchPredindirectMispredicted       346082                       # Number of mispredicted indirect branches.
system.cpu_voltage_domain.voltage                   1                       # Voltage in Volts
system.cpu_clk_domain.clock                       500                       # Clock period in ticks
system.cpu.dtb.fetch_hits                           0                       # ITB hits
system.cpu.dtb.fetch_misses                         0                       # ITB misses
system.cpu.dtb.fetch_acv                            0                       # ITB acv
system.cpu.dtb.fetch_accesses                       0                       # ITB accesses
system.cpu.dtb.read_hits                     19532316                       # DTB read hits
system.cpu.dtb.read_misses                      84120                       # DTB read misses
system.cpu.dtb.read_acv                           533                       # DTB read access violations
system.cpu.dtb.read_accesses                  1139176                       # DTB read accesses
system.cpu.dtb.write_hits                     9420320                       # DTB write hits
system.cpu.dtb.write_misses                     11762                       # DTB write misses
system.cpu.dtb.write_acv                          595                       # DTB write access violations
system.cpu.dtb.write_accesses                  382237                       # DTB write accesses
system.cpu.dtb.data_hits                     28952636                       # DTB hits
system.cpu.dtb.data_misses                      95882                       # DTB misses
system.cpu.dtb.data_acv                          1128                       # DTB access violations
system.cpu.dtb.data_accesses                  1521413                       # DTB accesses
system.cpu.itb.fetch_hits                     1830387                       # ITB hits
system.cpu.itb.fetch_misses                     54897                       # ITB misses
system.cpu.itb.fetch_acv                         1728                       # ITB acv
system.cpu.itb.fetch_accesses                 1885284                       # ITB accesses
system.cpu.itb.read_hits                            0                       # DTB read hits
system.cpu.itb.read_misses                          0                       # DTB read misses
system.cpu.itb.read_acv                             0                       # DTB read access violations
system.cpu.itb.read_accesses                        0                       # DTB read accesses
system.cpu.itb.write_hits                           0                       # DTB write hits
system.cpu.itb.write_misses                         0                       # DTB write misses
system.cpu.itb.write_acv                            0                       # DTB write access violations
system.cpu.itb.write_accesses                       0                       # DTB write accesses
system.cpu.itb.data_hits                            0                       # DTB hits
system.cpu.itb.data_misses                          0                       # DTB misses
system.cpu.itb.data_acv                             0                       # DTB access violations
system.cpu.itb.data_accesses                        0                       # DTB accesses
system.cpu.numPwrStateTransitions               14318                       # Number of power state transitions
system.cpu.pwrStateClkGateDist::samples          7159                       # Distribution of time spent in the clock gated state
system.cpu.pwrStateClkGateDist::mean     316871557.619779                       # Distribution of time spent in the clock gated state
system.cpu.pwrStateClkGateDist::stdev    455370322.827751                       # Distribution of time spent in the clock gated state
system.cpu.pwrStateClkGateDist::1000-5e+10         7159    100.00%    100.00% # Distribution of time spent in the clock gated state
system.cpu.pwrStateClkGateDist::min_value        97000                       # Distribution of time spent in the clock gated state
system.cpu.pwrStateClkGateDist::max_value   2000000000                       # Distribution of time spent in the clock gated state
system.cpu.pwrStateClkGateDist::total            7159                       # Distribution of time spent in the clock gated state
system.cpu.pwrStateResidencyTicks::ON    128662262500                       # Cumulative time (in ticks) in various power states
system.cpu.pwrStateResidencyTicks::CLK_GATED 2268483481000                       # Cumulative time (in ticks) in various power states
system.cpu.numCycles                        257331685                       # number of cpu cycles simulated
system.cpu.numWorkItemsStarted                      0                       # number of work items this cpu started
system.cpu.numWorkItemsCompleted                    0                       # number of work items this cpu completed
system.cpu.fetch.icacheStallCycles           37551850                       # Number of cycles fetch is stalled on an Icache miss
system.cpu.fetch.Insts                      132595726                       # Number of instructions fetch has processed
system.cpu.fetch.Branches                    28209667                       # Number of branches that fetch encountered
system.cpu.fetch.predictedBranches           12914424                       # Number of branches that fetch has predicted taken
system.cpu.fetch.Cycles                     203332203                       # Number of cycles fetch has run and was not squashing or blocked
system.cpu.fetch.SquashCycles                 2404996                       # Number of cycles fetch has spent squashing
system.cpu.fetch.TlbCycles                        373                       # Number of cycles fetch has spent waiting for tlb
system.cpu.fetch.MiscStallCycles                87336                       # Number of cycles fetch has spent waiting on interrupts, or bad addresses, or out of MSHRs
system.cpu.fetch.PendingTrapStallCycles        407888                       # Number of stall cycles due to pending traps
system.cpu.fetch.PendingQuiesceStallCycles       396436                       # Number of stall cycles due to pending quiesce instructions
system.cpu.fetch.IcacheWaitRetryStallCycles          310                       # Number of stall cycles due to full MSHR
system.cpu.fetch.CacheLines                  17001373                       # Number of cache lines fetched
system.cpu.fetch.IcacheSquashes                423702                       # Number of outstanding Icache misses that were squashed
system.cpu.fetch.ItlbSquashes                       2                       # Number of outstanding ITLB misses that were squashed
system.cpu.fetch.rateDist::samples          242978894                       # Number of instructions fetched each cycle (Total)
system.cpu.fetch.rateDist::mean              0.545709                       # Number of instructions fetched each cycle (Total)
system.cpu.fetch.rateDist::stdev             1.301403                       # Number of instructions fetched each cycle (Total)
system.cpu.fetch.rateDist::underflows               0      0.00%      0.00% # Number of instructions fetched each cycle (Total)
system.cpu.fetch.rateDist::0                202747111     83.44%     83.44% # Number of instructions fetched each cycle (Total)
system.cpu.fetch.rateDist::1                  4464933      1.84%     85.28% # Number of instructions fetched each cycle (Total)
system.cpu.fetch.rateDist::2                  5850886      2.41%     87.69% # Number of instructions fetched each cycle (Total)
system.cpu.fetch.rateDist::3                  3234835      1.33%     89.02% # Number of instructions fetched each cycle (Total)
system.cpu.fetch.rateDist::4                 26681129     10.98%    100.00% # Number of instructions fetched each cycle (Total)
system.cpu.fetch.rateDist::overflows                0      0.00%    100.00% # Number of instructions fetched each cycle (Total)
system.cpu.fetch.rateDist::min_value                0                       # Number of instructions fetched each cycle (Total)
system.cpu.fetch.rateDist::max_value                4                       # Number of instructions fetched each cycle (Total)
system.cpu.fetch.rateDist::total            242978894                       # Number of instructions fetched each cycle (Total)
system.cpu.fetch.branchRate                  0.109624                       # Number of branch fetches per cycle
system.cpu.fetch.rate                        0.515272                       # Number of inst fetches per cycle
system.cpu.decode.IdleCycles                 29815637                       # Number of cycles decode is idle
system.cpu.decode.BlockedCycles             178705724                       # Number of cycles decode is blocked
system.cpu.decode.RunCycles                  27532037                       # Number of cycles decode is running
system.cpu.decode.UnblockCycles               5778383                       # Number of cycles decode is unblocking
system.cpu.decode.SquashCycles                1147112                       # Number of cycles decode is squashing
system.cpu.decode.BranchResolved              9433129                       # Number of times decode resolved a branch
system.cpu.decode.BranchMispred                 58363                       # Number of times decode detected a branch misprediction
system.cpu.decode.DecodedInsts              119338443                       # Number of instructions handled by decode
system.cpu.decode.SquashedInsts                127471                       # Number of squashed instructions handled by decode
system.cpu.rename.SquashCycles                1147112                       # Number of cycles rename is squashing
system.cpu.rename.IdleCycles                 32482524                       # Number of cycles rename is idle
system.cpu.rename.BlockCycles               122074645                       # Number of cycles rename is blocking
system.cpu.rename.serializeStallCycles       33788484                       # count of cycles rename stalled for serializing inst
system.cpu.rename.RunCycles                  30326176                       # Number of cycles rename is running
system.cpu.rename.UnblockCycles              23159951                       # Number of cycles rename is unblocking
system.cpu.rename.RenamedInsts              116758286                       # Number of instructions processed by rename
system.cpu.rename.ROBFullEvents                 44535                       # Number of times rename has blocked due to ROB full
system.cpu.rename.IQFullEvents                5991903                       # Number of times rename has blocked due to IQ full
system.cpu.rename.LQFullEvents                4166005                       # Number of times rename has blocked due to LQ full
system.cpu.rename.SQFullEvents               10223496                       # Number of times rename has blocked due to SQ full
system.cpu.rename.RenamedOperands            84838989                       # Number of destination operands rename has renamed
system.cpu.rename.RenameLookups             149698351                       # Number of register rename lookups that rename has made
system.cpu.rename.int_rename_lookups        149499496                       # Number of integer rename lookups
system.cpu.rename.fp_rename_lookups            184664                       # Number of floating rename lookups
system.cpu.rename.CommittedMaps              71240107                       # Number of HB maps that are committed
system.cpu.rename.UndoneMaps                 13598874                       # Number of HB maps that are undone due to squashing
system.cpu.rename.serializingInsts            1998749                       # count of serializing insts renamed
system.cpu.rename.tempSerializingInsts         370411                       # count of temporary serializing insts renamed
system.cpu.rename.skidInsts                  17227306                       # count of insts added to the skid buffer
system.cpu.memDep0.insertedLoads             20733236                       # Number of loads inserted to the mem dependence unit.
system.cpu.memDep0.insertedStores             9962168                       # Number of stores inserted to the mem dependence unit.
system.cpu.memDep0.conflictingLoads           2671057                       # Number of conflicting loads.
system.cpu.memDep0.conflictingStores          1261394                       # Number of conflicting stores.
system.cpu.iq.iqInstsAdded                  109101430                       # Number of instructions added to the IQ (excludes non-spec)
system.cpu.iq.iqNonSpecInstsAdded             2747053                       # Number of non-speculative instructions added to the IQ
system.cpu.iq.iqInstsIssued                 105576622                       # Number of instructions issued
system.cpu.iq.iqSquashedInstsIssued            307391                       # Number of squashed instructions issued
system.cpu.iq.iqSquashedInstsExamined        16203196                       # Number of squashed instructions iterated over during squash; mainly for profiling
system.cpu.iq.iqSquashedOperandsExamined      7503195                       # Number of squashed operands that are examined and possibly removed from graph
system.cpu.iq.iqSquashedNonSpecRemoved        1665762                       # Number of squashed non-spec instructions that were removed
system.cpu.iq.issued_per_cycle::samples     242978894                       # Number of insts issued each cycle
system.cpu.iq.issued_per_cycle::mean         0.434509                       # Number of insts issued each cycle
system.cpu.iq.issued_per_cycle::stdev        1.014147                       # Number of insts issued each cycle
system.cpu.iq.issued_per_cycle::underflows            0      0.00%      0.00% # Number of insts issued each cycle
system.cpu.iq.issued_per_cycle::0           193501994     79.64%     79.64% # Number of insts issued each cycle
system.cpu.iq.issued_per_cycle::1            21636723      8.90%     88.54% # Number of insts issued each cycle
system.cpu.iq.issued_per_cycle::2            10321231      4.25%     92.79% # Number of insts issued each cycle
system.cpu.iq.issued_per_cycle::3             6778347      2.79%     95.58% # Number of insts issued each cycle
system.cpu.iq.issued_per_cycle::4            10740599      4.42%    100.00% # Number of insts issued each cycle
system.cpu.iq.issued_per_cycle::overflows            0      0.00%    100.00% # Number of insts issued each cycle
system.cpu.iq.issued_per_cycle::min_value            0                       # Number of insts issued each cycle
system.cpu.iq.issued_per_cycle::max_value            4                       # Number of insts issued each cycle
system.cpu.iq.issued_per_cycle::total       242978894                       # Number of insts issued each cycle
system.cpu.iq.fu_full::No_OpClass                   0      0.00%      0.00% # attempts to use FU when none available
system.cpu.iq.fu_full::IntAlu                       0      0.00%      0.00% # attempts to use FU when none available
system.cpu.iq.fu_full::IntMult                      5    100.00%    100.00% # attempts to use FU when none available
system.cpu.iq.fu_full::IntDiv                       0      0.00%    100.00% # attempts to use FU when none available
system.cpu.iq.fu_full::FloatAdd                     0      0.00%    100.00% # attempts to use FU when none available
system.cpu.iq.fu_full::FloatCmp                     0      0.00%    100.00% # attempts to use FU when none available
system.cpu.iq.fu_full::FloatCvt                     0      0.00%    100.00% # attempts to use FU when none available
system.cpu.iq.fu_full::FloatMult                    0      0.00%    100.00% # attempts to use FU when none available
system.cpu.iq.fu_full::FloatMultAcc                 0      0.00%    100.00% # attempts to use FU when none available
system.cpu.iq.fu_full::FloatDiv                     0      0.00%    100.00% # attempts to use FU when none available
system.cpu.iq.fu_full::FloatMisc                    0      0.00%    100.00% # attempts to use FU when none available
system.cpu.iq.fu_full::FloatSqrt                    0      0.00%    100.00% # attempts to use FU when none available
system.cpu.iq.fu_full::SimdAdd                      0      0.00%    100.00% # attempts to use FU when none available
system.cpu.iq.fu_full::SimdAddAcc                   0      0.00%    100.00% # attempts to use FU when none available
system.cpu.iq.fu_full::SimdAlu                      0      0.00%    100.00% # attempts to use FU when none available
system.cpu.iq.fu_full::SimdCmp                      0      0.00%    100.00% # attempts to use FU when none available
system.cpu.iq.fu_full::SimdCvt                      0      0.00%    100.00% # attempts to use FU when none available
system.cpu.iq.fu_full::SimdMisc                     0      0.00%    100.00% # attempts to use FU when none available
system.cpu.iq.fu_full::SimdMult                     0      0.00%    100.00% # attempts to use FU when none available
system.cpu.iq.fu_full::SimdMultAcc                  0      0.00%    100.00% # attempts to use FU when none available
system.cpu.iq.fu_full::SimdShift                    0      0.00%    100.00% # attempts to use FU when none available
system.cpu.iq.fu_full::SimdShiftAcc                 0      0.00%    100.00% # attempts to use FU when none available
system.cpu.iq.fu_full::SimdSqrt                     0      0.00%    100.00% # attempts to use FU when none available
system.cpu.iq.fu_full::SimdFloatAdd                 0      0.00%    100.00% # attempts to use FU when none available
system.cpu.iq.fu_full::SimdFloatAlu                 0      0.00%    100.00% # attempts to use FU when none available
system.cpu.iq.fu_full::SimdFloatCmp                 0      0.00%    100.00% # attempts to use FU when none available
system.cpu.iq.fu_full::SimdFloatCvt                 0      0.00%    100.00% # attempts to use FU when none available
system.cpu.iq.fu_full::SimdFloatDiv                 0      0.00%    100.00% # attempts to use FU when none available
system.cpu.iq.fu_full::SimdFloatMisc                0      0.00%    100.00% # attempts to use FU when none available
system.cpu.iq.fu_full::SimdFloatMult                0      0.00%    100.00% # attempts to use FU when none available
system.cpu.iq.fu_full::SimdFloatMultAcc             0      0.00%    100.00% # attempts to use FU when none available
system.cpu.iq.fu_full::SimdFloatSqrt                0      0.00%    100.00% # attempts to use FU when none available
system.cpu.iq.fu_full::MemRead                      0      0.00%    100.00% # attempts to use FU when none available
system.cpu.iq.fu_full::MemWrite                     0      0.00%    100.00% # attempts to use FU when none available
system.cpu.iq.fu_full::FloatMemRead                 0      0.00%    100.00% # attempts to use FU when none available
system.cpu.iq.fu_full::FloatMemWrite                0      0.00%    100.00% # attempts to use FU when none available
system.cpu.iq.fu_full::IprAccess                    0      0.00%    100.00% # attempts to use FU when none available
system.cpu.iq.fu_full::InstPrefetch                 0      0.00%    100.00% # attempts to use FU when none available
system.cpu.iq.FU_type_0::No_OpClass             62143      0.06%      0.06% # Type of FU issued
system.cpu.iq.FU_type_0::IntAlu              74082312     70.17%     70.23% # Type of FU issued
system.cpu.iq.FU_type_0::IntMult               194923      0.18%     70.41% # Type of FU issued
system.cpu.iq.FU_type_0::IntDiv                     0      0.00%     70.41% # Type of FU issued
system.cpu.iq.FU_type_0::FloatAdd              130477      0.12%     70.54% # Type of FU issued
system.cpu.iq.FU_type_0::FloatCmp                   0      0.00%     70.54% # Type of FU issued
system.cpu.iq.FU_type_0::FloatCvt                   0      0.00%     70.54% # Type of FU issued
system.cpu.iq.FU_type_0::FloatMult                  0      0.00%     70.54% # Type of FU issued
system.cpu.iq.FU_type_0::FloatMultAcc               0      0.00%     70.54% # Type of FU issued
system.cpu.iq.FU_type_0::FloatDiv                4179      0.00%     70.54% # Type of FU issued
system.cpu.iq.FU_type_0::FloatMisc                  0      0.00%     70.54% # Type of FU issued
system.cpu.iq.FU_type_0::FloatSqrt                  0      0.00%     70.54% # Type of FU issued
system.cpu.iq.FU_type_0::SimdAdd                    0      0.00%     70.54% # Type of FU issued
system.cpu.iq.FU_type_0::SimdAddAcc                 0      0.00%     70.54% # Type of FU issued
system.cpu.iq.FU_type_0::SimdAlu                    0      0.00%     70.54% # Type of FU issued
system.cpu.iq.FU_type_0::SimdCmp                    0      0.00%     70.54% # Type of FU issued
system.cpu.iq.FU_type_0::SimdCvt                    0      0.00%     70.54% # Type of FU issued
system.cpu.iq.FU_type_0::SimdMisc                   0      0.00%     70.54% # Type of FU issued
system.cpu.iq.FU_type_0::SimdMult                   0      0.00%     70.54% # Type of FU issued
system.cpu.iq.FU_type_0::SimdMultAcc                0      0.00%     70.54% # Type of FU issued
system.cpu.iq.FU_type_0::SimdShift                  0      0.00%     70.54% # Type of FU issued
system.cpu.iq.FU_type_0::SimdShiftAcc               0      0.00%     70.54% # Type of FU issued
system.cpu.iq.FU_type_0::SimdSqrt                   0      0.00%     70.54% # Type of FU issued
system.cpu.iq.FU_type_0::SimdFloatAdd               0      0.00%     70.54% # Type of FU issued
system.cpu.iq.FU_type_0::SimdFloatAlu               0      0.00%     70.54% # Type of FU issued
system.cpu.iq.FU_type_0::SimdFloatCmp               0      0.00%     70.54% # Type of FU issued
system.cpu.iq.FU_type_0::SimdFloatCvt               0      0.00%     70.54% # Type of FU issued
system.cpu.iq.FU_type_0::SimdFloatDiv               0      0.00%     70.54% # Type of FU issued
system.cpu.iq.FU_type_0::SimdFloatMisc              0      0.00%     70.54% # Type of FU issued
system.cpu.iq.FU_type_0::SimdFloatMult              0      0.00%     70.54% # Type of FU issued
system.cpu.iq.FU_type_0::SimdFloatMultAcc            0      0.00%     70.54% # Type of FU issued
system.cpu.iq.FU_type_0::SimdFloatSqrt              0      0.00%     70.54% # Type of FU issued
system.cpu.iq.FU_type_0::MemRead             20253796     19.18%     89.72% # Type of FU issued
system.cpu.iq.FU_type_0::MemWrite             9452820      8.95%     98.68% # Type of FU issued
system.cpu.iq.FU_type_0::FloatMemRead          165973      0.16%     98.83% # Type of FU issued
system.cpu.iq.FU_type_0::FloatMemWrite         154956      0.15%     98.98% # Type of FU issued
system.cpu.iq.FU_type_0::IprAccess            1075043      1.02%    100.00% # Type of FU issued
system.cpu.iq.FU_type_0::InstPrefetch               0      0.00%    100.00% # Type of FU issued
system.cpu.iq.FU_type_0::total              105576622                       # Type of FU issued
system.cpu.iq.rate                           0.410274                       # Inst issue rate
system.cpu.iq.fu_busy_cnt                           5                       # FU busy when requested
system.cpu.iq.fu_busy_rate                   0.000000                       # FU busy rate (busy events/executed inst)
system.cpu.iq.int_inst_queue_reads          453528188                       # Number of integer instruction queue reads
system.cpu.iq.int_inst_queue_writes         127576099                       # Number of integer instruction queue writes
system.cpu.iq.int_inst_queue_wakeup_accesses    102819787                       # Number of integer instruction queue wakeup accesses
system.cpu.iq.fp_inst_queue_reads              911345                       # Number of floating instruction queue reads
system.cpu.iq.fp_inst_queue_writes             499939                       # Number of floating instruction queue writes
system.cpu.iq.fp_inst_queue_wakeup_accesses       453853                       # Number of floating instruction queue wakeup accesses
system.cpu.iq.vec_inst_queue_reads                  0                       # Number of vector instruction queue reads
system.cpu.iq.vec_inst_queue_writes                 0                       # Number of vector instruction queue writes
system.cpu.iq.vec_inst_queue_wakeup_accesses            0                       # Number of vector instruction queue wakeup accesses
system.cpu.iq.int_alu_accesses              105058899                       # Number of integer alu accesses
system.cpu.iq.fp_alu_accesses                  455585                       # Number of floating point alu accesses
system.cpu.iq.vec_alu_accesses                      0                       # Number of vector alu accesses
system.cpu.iew.lsq.thread0.forwLoads           919346                       # Number of loads that had data forwarded from stores
system.cpu.iew.lsq.thread0.invAddrLoads             0                       # Number of loads ignored due to an invalid address
system.cpu.iew.lsq.thread0.squashedLoads      3730471                       # Number of loads squashed
system.cpu.iew.lsq.thread0.ignoredResponses        10024                       # Number of memory responses ignored because the instruction is squashed
system.cpu.iew.lsq.thread0.memOrderViolation        25220                       # Number of memory ordering violations
system.cpu.iew.lsq.thread0.squashedStores      1073379                       # Number of stores squashed
system.cpu.iew.lsq.thread0.invAddrSwpfs             0                       # Number of software prefetches ignored due to an invalid address
system.cpu.iew.lsq.thread0.blockedLoads             0                       # Number of blocked loads due to partial load-store forwarding
system.cpu.iew.lsq.thread0.rescheduledLoads        86861                       # Number of loads that were rescheduled
system.cpu.iew.lsq.thread0.cacheBlocked        245294                       # Number of times an access to memory failed due to the cache being blocked
system.cpu.iew.iewIdleCycles                        0                       # Number of cycles IEW is idle
system.cpu.iew.iewSquashCycles                1147112                       # Number of cycles IEW is squashing
system.cpu.iew.iewBlockCycles               114054539                       # Number of cycles IEW is blocking
system.cpu.iew.iewUnblockCycles               2233507                       # Number of cycles IEW is unblocking
system.cpu.iew.iewDispatchedInsts           113760158                       # Number of instructions dispatched to IQ
system.cpu.iew.iewDispSquashedInsts            583557                       # Number of squashed instructions skipped by dispatch
system.cpu.iew.iewDispLoadInsts              20733236                       # Number of dispatched load instructions
system.cpu.iew.iewDispStoreInsts              9962168                       # Number of dispatched store instructions
system.cpu.iew.iewDispNonSpecInsts            2152916                       # Number of dispatched non-speculative instructions
system.cpu.iew.iewIQFullEvents                 247819                       # Number of times the IQ has become full, causing a stall
system.cpu.iew.iewLSQFullEvents               1090368                       # Number of times the LSQ has become full, causing a stall
system.cpu.iew.memOrderViolationEvents          25220                       # Number of memory order violations
system.cpu.iew.predictedTakenIncorrect         319091                       # Number of branches that were predicted taken incorrectly
system.cpu.iew.predictedNotTakenIncorrect       870262                       # Number of branches that were predicted not taken incorrectly
system.cpu.iew.branchMispredicts              1189353                       # Number of branch mispredicts detected at execute
system.cpu.iew.iewExecutedInsts             104385020                       # Number of executed instructions
system.cpu.iew.iewExecLoadInsts              19652533                       # Number of load instructions executed
system.cpu.iew.iewExecSquashedInsts           1191601                       # Number of squashed instructions skipped in execute
system.cpu.iew.exec_swp                             0                       # number of swp insts executed
system.cpu.iew.exec_nop                       1911675                       # number of nop insts executed
system.cpu.iew.exec_refs                     29103715                       # number of memory reference insts executed
system.cpu.iew.exec_branches                 17329145                       # Number of branches executed
system.cpu.iew.exec_stores                    9451182                       # Number of stores executed
system.cpu.iew.exec_rate                     0.405644                       # Inst execution rate
system.cpu.iew.wb_sent                      103540093                       # cumulative count of insts sent to commit
system.cpu.iew.wb_count                     103273640                       # cumulative count of insts written-back
system.cpu.iew.wb_producers                  54317385                       # num instructions producing a value
system.cpu.iew.wb_consumers                  71975258                       # num instructions consuming a value
system.cpu.iew.wb_rate                       0.401325                       # insts written-back per cycle
system.cpu.iew.wb_fanout                     0.754667                       # average fanout of values written-back
system.cpu.commit.commitSquashedInsts        16297799                       # The number of squashed insts skipped by commit
system.cpu.commit.commitNonSpecStalls         1081291                       # The number of times commit has been forced to stall to communicate backwards
system.cpu.commit.branchMispredicts           1103695                       # The number of times a branch was mispredicted
system.cpu.commit.committed_per_cycle::samples    240092337                       # Number of insts commited each cycle
system.cpu.commit.committed_per_cycle::mean     0.404982                       # Number of insts commited each cycle
system.cpu.commit.committed_per_cycle::stdev     1.045304                       # Number of insts commited each cycle
system.cpu.commit.committed_per_cycle::underflows            0      0.00%      0.00% # Number of insts commited each cycle
system.cpu.commit.committed_per_cycle::0    199204927     82.97%     82.97% # Number of insts commited each cycle
system.cpu.commit.committed_per_cycle::1     16203368      6.75%     89.72% # Number of insts commited each cycle
system.cpu.commit.committed_per_cycle::2      7257006      3.02%     92.74% # Number of insts commited each cycle
system.cpu.commit.committed_per_cycle::3      3192423      1.33%     94.07% # Number of insts commited each cycle
system.cpu.commit.committed_per_cycle::4     14234613      5.93%    100.00% # Number of insts commited each cycle
system.cpu.commit.committed_per_cycle::overflows            0      0.00%    100.00% # Number of insts commited each cycle
system.cpu.commit.committed_per_cycle::min_value            0                       # Number of insts commited each cycle
system.cpu.commit.committed_per_cycle::max_value            4                       # Number of insts commited each cycle
system.cpu.commit.committed_per_cycle::total    240092337                       # Number of insts commited each cycle
system.cpu.commit.committedInsts             97233101                       # Number of instructions committed
system.cpu.commit.committedOps               97233101                       # Number of ops (including micro ops) committed
system.cpu.commit.swp_count                         0                       # Number of s/w prefetches committed
system.cpu.commit.refs                       25891554                       # Number of memory references committed
system.cpu.commit.loads                      17002765                       # Number of loads committed
system.cpu.commit.membars                      455237                       # Number of memory barriers committed
system.cpu.commit.branches                   16068244                       # Number of branches committed
system.cpu.commit.vec_insts                         0                       # Number of committed Vector instructions.
system.cpu.commit.fp_insts                     431691                       # Number of committed floating point instructions.
system.cpu.commit.int_insts                  94226030                       # Number of committed integer instructions.
system.cpu.commit.function_calls              1453105                       # Number of function calls committed.
system.cpu.commit.op_class_0::No_OpClass      1596178      1.64%      1.64% # Class of committed instruction
system.cpu.commit.op_class_0::IntAlu         67831030     69.76%     71.40% # Class of committed instruction
system.cpu.commit.op_class_0::IntMult          188376      0.19%     71.60% # Class of committed instruction
system.cpu.commit.op_class_0::IntDiv                0      0.00%     71.60% # Class of committed instruction
system.cpu.commit.op_class_0::FloatAdd         117582      0.12%     71.72% # Class of committed instruction
system.cpu.commit.op_class_0::FloatCmp              0      0.00%     71.72% # Class of committed instruction
system.cpu.commit.op_class_0::FloatCvt              0      0.00%     71.72% # Class of committed instruction
system.cpu.commit.op_class_0::FloatMult             0      0.00%     71.72% # Class of committed instruction
system.cpu.commit.op_class_0::FloatMultAcc            0      0.00%     71.72% # Class of committed instruction
system.cpu.commit.op_class_0::FloatDiv           4179      0.00%     71.72% # Class of committed instruction
system.cpu.commit.op_class_0::FloatMisc             0      0.00%     71.72% # Class of committed instruction
system.cpu.commit.op_class_0::FloatSqrt             0      0.00%     71.72% # Class of committed instruction
system.cpu.commit.op_class_0::SimdAdd               0      0.00%     71.72% # Class of committed instruction
system.cpu.commit.op_class_0::SimdAddAcc            0      0.00%     71.72% # Class of committed instruction
system.cpu.commit.op_class_0::SimdAlu               0      0.00%     71.72% # Class of committed instruction
system.cpu.commit.op_class_0::SimdCmp               0      0.00%     71.72% # Class of committed instruction
system.cpu.commit.op_class_0::SimdCvt               0      0.00%     71.72% # Class of committed instruction
system.cpu.commit.op_class_0::SimdMisc              0      0.00%     71.72% # Class of committed instruction
system.cpu.commit.op_class_0::SimdMult              0      0.00%     71.72% # Class of committed instruction
system.cpu.commit.op_class_0::SimdMultAcc            0      0.00%     71.72% # Class of committed instruction
system.cpu.commit.op_class_0::SimdShift             0      0.00%     71.72% # Class of committed instruction
system.cpu.commit.op_class_0::SimdShiftAcc            0      0.00%     71.72% # Class of committed instruction
system.cpu.commit.op_class_0::SimdSqrt              0      0.00%     71.72% # Class of committed instruction
system.cpu.commit.op_class_0::SimdFloatAdd            0      0.00%     71.72% # Class of committed instruction
system.cpu.commit.op_class_0::SimdFloatAlu            0      0.00%     71.72% # Class of committed instruction
system.cpu.commit.op_class_0::SimdFloatCmp            0      0.00%     71.72% # Class of committed instruction
system.cpu.commit.op_class_0::SimdFloatCvt            0      0.00%     71.72% # Class of committed instruction
system.cpu.commit.op_class_0::SimdFloatDiv            0      0.00%     71.72% # Class of committed instruction
system.cpu.commit.op_class_0::SimdFloatMisc            0      0.00%     71.72% # Class of committed instruction
system.cpu.commit.op_class_0::SimdFloatMult            0      0.00%     71.72% # Class of committed instruction
system.cpu.commit.op_class_0::SimdFloatMultAcc            0      0.00%     71.72% # Class of committed instruction
system.cpu.commit.op_class_0::SimdFloatSqrt            0      0.00%     71.72% # Class of committed instruction
system.cpu.commit.op_class_0::MemRead        17299413     17.79%     89.51% # Class of committed instruction
system.cpu.commit.op_class_0::MemWrite        8811371      9.06%     98.58% # Class of committed instruction
system.cpu.commit.op_class_0::FloatMemRead       158589      0.16%     98.74% # Class of committed instruction
system.cpu.commit.op_class_0::FloatMemWrite       151341      0.16%     98.89% # Class of committed instruction
system.cpu.commit.op_class_0::IprAccess       1075042      1.11%    100.00% # Class of committed instruction
system.cpu.commit.op_class_0::InstPrefetch            0      0.00%    100.00% # Class of committed instruction
system.cpu.commit.op_class_0::total          97233101                       # Class of committed instruction
system.cpu.commit.bw_lim_events              14234613                       # number cycles where commit BW limit reached
system.cpu.rob.rob_reads                    339092610                       # The number of ROB reads
system.cpu.rob.rob_writes                   229951946                       # The number of ROB writes
system.cpu.timesIdled                          641656                       # Number of times that the entire CPU went into an idle state and unscheduled itself
system.cpu.idleCycles                        14352791                       # Total number of cycles that the CPU has spent unscheduled due to idling
system.cpu.quiesceCycles                   4536959803                       # Total number of cycles that CPU has spent quiesced or waiting for an interrupt
system.cpu.committedInsts                    95645282                       # Number of Instructions Simulated
system.cpu.committedOps                      95645282                       # Number of Ops (including micro ops) Simulated
system.cpu.cpi                               2.690480                       # CPI: Cycles Per Instruction
system.cpu.cpi_total                         2.690480                       # CPI: Total CPI of All Threads
system.cpu.ipc                               0.371681                       # IPC: Instructions Per Cycle
system.cpu.ipc_total                         0.371681                       # IPC: Total IPC of All Threads
system.cpu.int_regfile_reads                138313485                       # number of integer regfile reads
system.cpu.int_regfile_writes                77091930                       # number of integer regfile writes
system.cpu.fp_regfile_reads                    183991                       # number of floating regfile reads
system.cpu.fp_regfile_writes                   190646                       # number of floating regfile writes
system.cpu.misc_regfile_reads                 2462213                       # number of misc regfile reads
system.cpu.misc_regfile_writes                1202861                       # number of misc regfile writes
system.cpu.dcache.tags.pwrStateResidencyTicks::UNDEFINED 2397145743500                       # Cumulative time (in ticks) in various power states
system.cpu.dcache.tags.replacements           2574784                       # number of replacements
system.cpu.dcache.tags.tagsinuse           255.997848                       # Cycle average of tags in use
system.cpu.dcache.tags.total_refs            20875391                       # Total number of references to valid blocks.
system.cpu.dcache.tags.sampled_refs           2574784                       # Sample count of references to valid blocks.
system.cpu.dcache.tags.avg_refs              8.107628                       # Average number of references to valid blocks.
system.cpu.dcache.tags.warmup_cycle          27490500                       # Cycle when the warmup percentage was hit.
system.cpu.dcache.tags.occ_blocks::cpu.data   255.997848                       # Average occupied blocks per requestor
system.cpu.dcache.tags.occ_percent::cpu.data     0.999992                       # Average percentage of cache occupancy
system.cpu.dcache.tags.occ_percent::total     0.999992                       # Average percentage of cache occupancy
system.cpu.dcache.tags.occ_task_id_blocks::1024          256                       # Occupied blocks per task id
system.cpu.dcache.tags.age_task_id_blocks_1024::0          147                       # Occupied blocks per task id
system.cpu.dcache.tags.age_task_id_blocks_1024::1           58                       # Occupied blocks per task id
[...]
system.membus.snoop_fanout::overflows               0      0.00%    100.00% # Request fanout histogram
system.membus.snoop_fanout::min_value               0                       # Request fanout histogram
system.membus.snoop_fanout::max_value               0                       # Request fanout histogram
system.membus.snoop_fanout::total               13685                       # Request fanout histogram
system.membus.reqLayer0.occupancy              671000                       # Layer occupancy (ticks)
system.membus.reqLayer0.utilization               0.0                       # Layer utilization (%)
system.membus.reqLayer1.occupancy            70511500                       # Layer occupancy (ticks)
system.membus.reqLayer1.utilization               4.1                       # Layer utilization (%)
system.membus.respLayer2.occupancy          124892750                       # Layer occupancy (ticks)
system.membus.respLayer2.utilization              7.2                       # Layer utilization (%)
system.membus.badaddr_responder.pwrStateResidencyTicks::UNDEFINED   1727864500                       # Cumulative time (in ticks) in various power states
system.tol2bus.snoop_filter.tot_requests        53894                       # Total number of requests made to the snoop filter.
system.tol2bus.snoop_filter.hit_single_requests        26941                       # Number of requests hitting in the snoop filter with a single holder of the requested data.
system.tol2bus.snoop_filter.hit_multi_requests          202                       # Number of requests hitting in the snoop filter with multiple (>1) holders of the requested data.
system.tol2bus.snoop_filter.tot_snoops            296                       # Total number of snoops made to the snoop filter.
system.tol2bus.snoop_filter.hit_single_snoops          296                       # Number of snoops hitting in the snoop filter with a single holder of the requested data.
system.tol2bus.snoop_filter.hit_multi_snoops            0                       # Number of snoops hitting in the snoop filter with multiple (>1) holders of the requested data.
system.tol2bus.pwrStateResidencyTicks::UNDEFINED   1727864500                       # Cumulative time (in ticks) in various power states
system.tol2bus.trans_dist::ReadReq                300                       # Transaction distribution
system.tol2bus.trans_dist::ReadResp             22242                       # Transaction distribution
system.tol2bus.trans_dist::WriteReq               133                       # Transaction distribution
system.tol2bus.trans_dist::WriteResp              133                       # Transaction distribution
system.tol2bus.trans_dist::WritebackDirty        14992                       # Transaction distribution
system.tol2bus.trans_dist::WritebackClean        10767                       # Transaction distribution
system.tol2bus.trans_dist::CleanEvict           14566                       # Transaction distribution
system.tol2bus.trans_dist::UpgradeReq               2                       # Transaction distribution
system.tol2bus.trans_dist::SCUpgradeReq             1                       # Transaction distribution
system.tol2bus.trans_dist::UpgradeResp              3                       # Transaction distribution
system.tol2bus.trans_dist::ReadExReq             5008                       # Transaction distribution
system.tol2bus.trans_dist::ReadExResp            5008                       # Transaction distribution
system.tol2bus.trans_dist::ReadCleanReq         10776                       # Transaction distribution
system.tol2bus.trans_dist::ReadSharedReq        11166                       # Transaction distribution
system.tol2bus.pkt_count_system.cpu.icache.mem_side::system.l2.cpu_side        32317                       # Packet count per connected master and slave (bytes)
system.tol2bus.pkt_count_system.cpu.dcache.mem_side::system.l2.cpu_side        49394                       # Packet count per connected master and slave (bytes)
system.tol2bus.pkt_count::total                 81711                       # Packet count per connected master and slave (bytes)
system.tol2bus.pkt_size_system.cpu.icache.mem_side::system.l2.cpu_side      2757248                       # Cumulative packet size per connected master and slave (bytes)
system.tol2bus.pkt_size_system.cpu.dcache.mem_side::system.l2.cpu_side      3323944                       # Cumulative packet size per connected master and slave (bytes)
system.tol2bus.pkt_size::total                6081192                       # Cumulative packet size per connected master and slave (bytes)
system.tol2bus.snoops                           13386                       # Total snoops (count)
system.tol2bus.snoopTraffic                    666112                       # Total snoop traffic (bytes)
system.tol2bus.snoop_fanout::samples            40770                       # Request fanout histogram
system.tol2bus.snoop_fanout::mean            0.012019                       # Request fanout histogram
system.tol2bus.snoop_fanout::stdev           0.108970                       # Request fanout histogram
system.tol2bus.snoop_fanout::underflows             0      0.00%      0.00% # Request fanout histogram
system.tol2bus.snoop_fanout::0                  40280     98.80%     98.80% # Request fanout histogram
system.tol2bus.snoop_fanout::1                    490      1.20%    100.00% # Request fanout histogram
system.tol2bus.snoop_fanout::2                      0      0.00%    100.00% # Request fanout histogram
system.tol2bus.snoop_fanout::overflows              0      0.00%    100.00% # Request fanout histogram
system.tol2bus.snoop_fanout::min_value              0                       # Request fanout histogram
system.tol2bus.snoop_fanout::max_value              1                       # Request fanout histogram
system.tol2bus.snoop_fanout::total              40770                       # Request fanout histogram
system.tol2bus.reqLayer0.occupancy           68344000                       # Layer occupancy (ticks)
system.tol2bus.reqLayer0.utilization              4.0                       # Layer utilization (%)
system.tol2bus.respLayer0.occupancy          26956467                       # Layer occupancy (ticks)
system.tol2bus.respLayer0.utilization             1.6                       # Layer utilization (%)
system.tol2bus.respLayer1.occupancy          40807491                       # Layer occupancy (ticks)
system.tol2bus.respLayer1.utilization             2.4                       # Layer utilization (%)
system.tsunami.backdoor.pwrStateResidencyTicks::UNDEFINED   1727864500                       # Cumulative time (in ticks) in various power states
system.tsunami.cchip.pwrStateResidencyTicks::UNDEFINED   1727864500                       # Cumulative time (in ticks) in various power states
system.tsunami.pchip.pwrStateResidencyTicks::UNDEFINED   1727864500                       # Cumulative time (in ticks) in various power states
system.tsunami.ethernet.pwrStateResidencyTicks::UNDEFINED   1727864500                       # Cumulative time (in ticks) in various power states
system.tsunami.ethernet.descDMAReads                0                       # Number of descriptors the device read w/ DMA
system.tsunami.ethernet.descDMAWrites               0                       # Number of descriptors the device wrote w/ DMA
system.tsunami.ethernet.descDmaReadBytes            0                       # number of descriptor bytes read w/ DMA
system.tsunami.ethernet.descDmaWriteBytes            0                       # number of descriptor bytes write w/ DMA
system.tsunami.ethernet.postedSwi                   0                       # number of software interrupts posted to CPU
system.tsunami.ethernet.coalescedSwi              nan                       # average number of Swi's coalesced into each post
system.tsunami.ethernet.totalSwi                    0                       # total number of Swi written to ISR
system.tsunami.ethernet.postedRxIdle                0                       # number of rxIdle interrupts posted to CPU
system.tsunami.ethernet.coalescedRxIdle           nan                       # average number of RxIdle's coalesced into each post
system.tsunami.ethernet.totalRxIdle                 0                       # total number of RxIdle written to ISR
system.tsunami.ethernet.postedRxOk                  0                       # number of RxOk interrupts posted to CPU
system.tsunami.ethernet.coalescedRxOk             nan                       # average number of RxOk's coalesced into each post
system.tsunami.ethernet.totalRxOk                   0                       # total number of RxOk written to ISR
system.tsunami.ethernet.postedRxDesc                0                       # number of RxDesc interrupts posted to CPU
system.tsunami.ethernet.coalescedRxDesc           nan                       # average number of RxDesc's coalesced into each post
system.tsunami.ethernet.totalRxDesc                 0                       # total number of RxDesc written to ISR
system.tsunami.ethernet.postedTxOk                  0                       # number of TxOk interrupts posted to CPU
system.tsunami.ethernet.coalescedTxOk             nan                       # average number of TxOk's coalesced into each post
system.tsunami.ethernet.totalTxOk                   0                       # total number of TxOk written to ISR
system.tsunami.ethernet.postedTxIdle                0                       # number of TxIdle interrupts posted to CPU
system.tsunami.ethernet.coalescedTxIdle           nan                       # average number of TxIdle's coalesced into each post
system.tsunami.ethernet.totalTxIdle                 0                       # total number of TxIdle written to ISR
system.tsunami.ethernet.postedTxDesc                0                       # number of TxDesc interrupts posted to CPU
system.tsunami.ethernet.coalescedTxDesc           nan                       # average number of TxDesc's coalesced into each post
system.tsunami.ethernet.totalTxDesc                 0                       # total number of TxDesc written to ISR
system.tsunami.ethernet.postedRxOrn                 0                       # number of RxOrn posted to CPU
system.tsunami.ethernet.coalescedRxOrn            nan                       # average number of RxOrn's coalesced into each post
system.tsunami.ethernet.totalRxOrn                  0                       # total number of RxOrn written to ISR
system.tsunami.ethernet.coalescedTotal            nan                       # average number of interrupts coalesced into each post
system.tsunami.ethernet.postedInterrupts            0                       # number of posts to CPU
system.tsunami.ethernet.droppedPackets              0                       # number of packets dropped
system.tsunami.fake_OROM.pwrStateResidencyTicks::UNDEFINED   1727864500                       # Cumulative time (in ticks) in various power states
system.tsunami.fake_ata0.pwrStateResidencyTicks::UNDEFINED   1727864500                       # Cumulative time (in ticks) in various power states
system.tsunami.fake_ata1.pwrStateResidencyTicks::UNDEFINED   1727864500                       # Cumulative time (in ticks) in various power states
system.tsunami.fake_pnp_addr.pwrStateResidencyTicks::UNDEFINED   1727864500                       # Cumulative time (in ticks) in various power states
system.tsunami.fake_pnp_read0.pwrStateResidencyTicks::UNDEFINED   1727864500                       # Cumulative time (in ticks) in various power states
system.tsunami.fake_pnp_read1.pwrStateResidencyTicks::UNDEFINED   1727864500                       # Cumulative time (in ticks) in various power states
system.tsunami.fake_pnp_read2.pwrStateResidencyTicks::UNDEFINED   1727864500                       # Cumulative time (in ticks) in various power states
system.tsunami.fake_pnp_read3.pwrStateResidencyTicks::UNDEFINED   1727864500                       # Cumulative time (in ticks) in various power states
system.tsunami.fake_pnp_read4.pwrStateResidencyTicks::UNDEFINED   1727864500                       # Cumulative time (in ticks) in various power states
system.tsunami.fake_pnp_read5.pwrStateResidencyTicks::UNDEFINED   1727864500                       # Cumulative time (in ticks) in various power states
system.tsunami.fake_pnp_read6.pwrStateResidencyTicks::UNDEFINED   1727864500                       # Cumulative time (in ticks) in various power states
system.tsunami.fake_pnp_read7.pwrStateResidencyTicks::UNDEFINED   1727864500                       # Cumulative time (in ticks) in various power states
system.tsunami.fake_pnp_write.pwrStateResidencyTicks::UNDEFINED   1727864500                       # Cumulative time (in ticks) in various power states
system.tsunami.fake_ppc.pwrStateResidencyTicks::UNDEFINED   1727864500                       # Cumulative time (in ticks) in various power states
system.tsunami.fake_sm_chip.pwrStateResidencyTicks::UNDEFINED   1727864500                       # Cumulative time (in ticks) in various power states
system.tsunami.fake_uart1.pwrStateResidencyTicks::UNDEFINED   1727864500                       # Cumulative time (in ticks) in various power states
system.tsunami.fake_uart2.pwrStateResidencyTicks::UNDEFINED   1727864500                       # Cumulative time (in ticks) in various power states
system.tsunami.fake_uart3.pwrStateResidencyTicks::UNDEFINED   1727864500                       # Cumulative time (in ticks) in various power states
system.tsunami.fake_uart4.pwrStateResidencyTicks::UNDEFINED   1727864500                       # Cumulative time (in ticks) in various power states
system.tsunami.fb.pwrStateResidencyTicks::UNDEFINED   1727864500                       # Cumulative time (in ticks) in various power states
system.tsunami.ide.pwrStateResidencyTicks::UNDEFINED   1727864500                       # Cumulative time (in ticks) in various power states
system.tsunami.io.pwrStateResidencyTicks::UNDEFINED   1727864500                       # Cumulative time (in ticks) in various power states
system.tsunami.uart.pwrStateResidencyTicks::UNDEFINED   1727864500                       # Cumulative time (in ticks) in various power states
system.cpu.kern.inst.arm                            0                       # number of arm instructions executed
system.cpu.kern.inst.quiesce                        0                       # number of quiesce instructions executed
system.cpu.kern.callpal::swpctx                   120      3.49%      3.49% # number of callpals executed
system.cpu.kern.callpal::tbi                        6      0.17%      3.67% # number of callpals executed
system.cpu.kern.callpal::swpipl                  3009     87.60%     91.27% # number of callpals executed
system.cpu.kern.callpal::rdps                      11      0.32%     91.59% # number of callpals executed
system.cpu.kern.callpal::wrusp                      1      0.03%     91.62% # number of callpals executed
system.cpu.kern.callpal::rdusp                      1      0.03%     91.64% # number of callpals executed
system.cpu.kern.callpal::rti                      203      5.91%     97.55% # number of callpals executed
system.cpu.kern.callpal::callsys                   42      1.22%     98.78% # number of callpals executed
system.cpu.kern.callpal::imb                        9      0.26%     99.04% # number of callpals executed
system.cpu.kern.callpal::rdunique                  33      0.96%    100.00% # number of callpals executed
system.cpu.kern.callpal::total                   3435                       # number of callpals executed
system.cpu.kern.inst.hwrei                       5143                       # number of hwrei instructions executed
system.cpu.kern.mode_switch::kernel               323                       # number of protection mode switches
system.cpu.kern.mode_switch::user                 193                       # number of protection mode switches
system.cpu.kern.mode_switch::idle                   0                       # number of protection mode switches
system.cpu.kern.mode_good::kernel                 193                      
system.cpu.kern.mode_good::user                   193                      
system.cpu.kern.mode_good::idle                     0                      
system.cpu.kern.mode_switch_good::kernel     0.597523                       # fraction of useful protection mode switches
system.cpu.kern.mode_switch_good::user              1                       # fraction of useful protection mode switches
system.cpu.kern.mode_switch_good::idle            nan                       # fraction of useful protection mode switches
system.cpu.kern.mode_switch_good::total      0.748062                       # fraction of useful protection mode switches
system.cpu.kern.mode_ticks::kernel         1013189000     58.66%     58.66% # number of ticks spent at the given mode
system.cpu.kern.mode_ticks::user            714090500     41.34%    100.00% # number of ticks spent at the given mode
system.cpu.kern.mode_ticks::idle                    0      0.00%    100.00% # number of ticks spent at the given mode
system.cpu.kern.swap_context                      120                       # number of times the context was actually changed
system.cpu.kern.ipl_count::0                     1552     48.18%     48.18% # number of times we switched to this ipl
system.cpu.kern.ipl_count::21                       8      0.25%     48.43% # number of times we switched to this ipl
system.cpu.kern.ipl_count::22                       1      0.03%     48.46% # number of times we switched to this ipl
system.cpu.kern.ipl_count::31                    1660     51.54%    100.00% # number of times we switched to this ipl
system.cpu.kern.ipl_count::total                 3221                       # number of times we switched to this ipl
system.cpu.kern.ipl_good::0                      1550     49.86%     49.86% # number of times we switched to this ipl from a different ipl
system.cpu.kern.ipl_good::21                        8      0.26%     50.11% # number of times we switched to this ipl from a different ipl
system.cpu.kern.ipl_good::22                        1      0.03%     50.14% # number of times we switched to this ipl from a different ipl
system.cpu.kern.ipl_good::31                     1550     49.86%    100.00% # number of times we switched to this ipl from a different ipl
system.cpu.kern.ipl_good::total                  3109                       # number of times we switched to this ipl from a different ipl
system.cpu.kern.ipl_ticks::0               1439153000     83.32%     83.32% # number of cycles we spent at this ipl
system.cpu.kern.ipl_ticks::21                 5708000      0.33%     83.65% # number of cycles we spent at this ipl
system.cpu.kern.ipl_ticks::22                  428500      0.02%     83.67% # number of cycles we spent at this ipl
system.cpu.kern.ipl_ticks::31               281990000     16.33%    100.00% # number of cycles we spent at this ipl
system.cpu.kern.ipl_ticks::total           1727279500                       # number of cycles we spent at this ipl
system.cpu.kern.ipl_used::0                  0.998711                       # fraction of swpipl calls that actually changed the ipl
system.cpu.kern.ipl_used::21                        1                       # fraction of swpipl calls that actually changed the ipl
system.cpu.kern.ipl_used::22                        1                       # fraction of swpipl calls that actually changed the ipl
system.cpu.kern.ipl_used::31                 0.933735                       # fraction of swpipl calls that actually changed the ipl
system.cpu.kern.ipl_used::total              0.965228                       # fraction of swpipl calls that actually changed the ipl

---------- End Simulation Statistics   ----------
